OpenDSS/Examples/InverterModels/PVSystem2/InvControl2/MonitoredVoltage/Mon_voltage_MAX_Mix_ravg_sec9_VLN_Node.Txt

LINE-GROUND and LINE-LINE VOLTAGES BY BUS & NODE

Bus  Node    VLN (kV)   Angle      pu     Base kV    Node-Node   VLL (kV)  Angle      pu

A .. 1       8.1262 /_    4.5    1.0199    13.800        1-2     14.076 /_   34.5      1.02
   - 2       8.1283 /_ -115.5    1.0202    13.800        2-3     14.076 /_  -85.5      1.02
   - 3       8.1265 /_  124.5      1.02    13.800        3-1     14.077 /_  154.5      1.02
B .. 1       8.1467 /_    6.0    1.0225    13.800        1-2     14.092 /_   35.8    1.0212
   - 2       8.1113 /_ -114.2    1.0181    13.800        2-3     14.031 /_  -84.1    1.0167
   - 3       8.1016 /_  125.9    1.0168    13.800        3-1     14.069 /_  156.1    1.0195
C .. 1      0.28381 /_    6.0    1.0241     0.480        1-2    0.49095 /_   35.9    1.0228
   - 2      0.28258 /_ -114.2    1.0197     0.480        2-3    0.48881 /_  -84.1    1.0183
   - 3      0.28225 /_  126.0    1.0185     0.480        3-1    0.49014 /_  156.1    1.0211
